
     RDKit          3D

 29 30  0  0  0  0  0  0  0  0999 V2000
   -4.8280    6.6020    7.5610 P   0  0  0  0  0  0  0  0  0  0  0  0
   -3.6630    6.2550    8.4020 O   0  0  0  0  0  0  0  0  0  0  0  0
   -6.1040    5.8470    7.8450 O   0  0  0  0  0  0  0  0  0  0  0  0
   -5.1100    8.2670    7.7180 N   0  0  0  0  0  0  0  0  0  0  0  0
   -4.4060    6.4010    6.0480 O   0  0  0  0  0  0  0  0  0  0  0  0
   -6.5580    8.9210    8.1090 P   0  0  0  0  0  0  0  0  0  0  0  0
   -7.2080    9.5130    6.9000 O   0  0  0  0  0  0  0  0  0  0  0  0
   -7.4780    7.8800    8.7380 O   0  0  0  0  0  0  0  0  0  0  0  0
   -6.2210   10.0580    9.1510 O   0  0  0  0  0  0  0  0  0  0  0  0
   -6.5170    9.9870   10.7030 P   0  0  0  0  0  0  0  0  0  0  0  0
   -6.3550    8.5500   11.0770 O   0  0  0  0  0  0  0  0  0  0  0  0
   -5.5240   10.9100   11.3460 O   0  0  0  0  0  0  0  0  0  0  0  0
   -7.9550   10.4260   10.8780 O   0  0  0  0  0  0  0  0  0  0  0  0
   -5.3750    6.4510    5.0080 C   0  0  0  0  0  0  0  0  0  0  0  0
   -4.7150    6.0080    3.7090 C   0  0  1  0  0  0  0  0  0  0  0  0
   -3.4370    6.6260    3.5620 O   0  0  0  0  0  0  0  0  0  0  0  0
   -2.5060    5.6600    3.0070 C   0  0  2  0  0  0  0  0  0  0  0  0
   -3.0670    4.2780    3.3850 C   0  0  2  0  0  0  0  0  0  0  0  0
   -2.8660    3.4210    2.2310 O   0  0  0  0  0  0  0  0  0  0  0  0
   -4.5020    4.5270    3.6650 C   0  0  2  0  0  0  0  0  0  0  0  0
   -5.2940    4.0040    2.5790 O   0  0  0  0  0  0  0  0  0  0  0  0
   -1.1930    5.8670    3.6040 N   0  0  0  0  0  0  0  0  0  0  0  0
   -1.0320    6.1940    4.9630 C   0  0  0  0  0  0  0  0  0  0  0  0
   -0.0440    5.7120    2.7790 C   0  0  0  0  0  0  0  0  0  0  0  0
   -0.1810    5.4280    1.5810 O   0  0  0  0  0  0  0  0  0  0  0  0
    1.1730    5.8660    3.3250 N   0  0  0  0  0  0  0  0  0  0  0  0
    1.3650    6.1940    4.6400 C   0  0  0  0  0  0  0  0  0  0  0  0
    2.5200    6.3390    5.0580 O   0  0  0  0  0  0  0  0  0  0  0  0
    0.1830    6.3530    5.4950 C   0  0  0  0  0  0  0  0  0  0  0  0
  2  1  1  0
  3  1  1  0
  4  1  1  0
  5  1  1  0
  6  4  1  0
  7  6  1  0
  8  6  1  0
  9  6  1  0
 10  9  1  0
 11 10  1  0
 12 10  1  0
 13 10  1  0
 14  5  1  0
 15 14  1  1
 16 15  1  0
 17 16  1  0
 18 17  1  0
 18 19  1  6
 20 18  1  0
 20 15  1  0
 20 21  1  6
 17 22  1  1
 23 22  1  0
 24 22  1  0
 25 24  1  0
 26 24  1  0
 27 26  1  0
 28 27  1  0
 29 27  1  0
 29 23  1  0
M  END
