
     RDKit          3D

 21 21  0  0  0  0  0  0  0  0999 V2000
   -6.7910    0.1150    4.4710 C   0  0  0  0  0  0  0  0  0  0  0  0
   -7.5490    0.4830    5.6550 C   0  0  0  0  0  0  0  0  0  0  0  0
   -8.0550    2.3480    7.0150 C   0  0  0  0  0  0  0  0  0  0  0  0
   -7.1940    1.6440    6.0160 C   0  0  0  0  0  0  0  0  0  0  0  0
   -6.0460    2.1470    5.4320 C   0  0  0  0  0  0  0  0  0  0  0  0
   -5.2940    1.4240    4.5970 C   0  0  0  0  0  0  0  0  0  0  0  0
   -5.6050    0.2170    4.2640 C   0  0  2  0  0  0  0  0  0  0  0  0
   -4.6890   -0.5900    3.3670 C   0  0  1  0  0  0  0  0  0  0  0  0
   -3.8010   -2.7490    2.4580 C   0  0  0  0  0  0  0  0  0  0  0  0
   -4.4550   -3.4090    1.2990 C   0  0  0  0  0  0  0  0  0  0  0  0
   -4.0100   -2.8970   -0.0200 C   0  0  0  0  0  0  0  0  0  0  0  0
   -4.1580   -2.9330   -2.4110 C   0  0  0  0  0  0  0  0  0  0  0  0
   -5.0650   -3.2750   -3.5120 C   0  0  0  0  0  0  0  0  0  0  0  0
   -4.3470   -5.0180   -1.1590 C   0  0  0  0  0  0  0  0  0  0  0  0
   -2.9940   -5.6020   -1.4420 C   0  0  0  0  0  0  0  0  0  0  0  0
   -5.6520    3.3950    5.6570 N   0  0  0  0  0  0  0  0  0  0  0  0
   -4.7040   -1.9230    3.2740 N   0  0  0  0  0  0  0  0  0  0  0  0
   -4.4480   -3.5890   -1.2020 N   0  0  0  0  0  0  0  0  0  0  0  0
   -6.5020    4.1040    5.6090 O   0  0  0  0  0  0  0  0  0  0  0  0
   -4.4750    3.6810    5.5680 O   0  0  0  0  0  0  0  0  0  0  0  0
   -3.9660   -0.0170    2.6310 O   0  0  0  0  0  0  0  0  0  0  0  0
  2  1  1  0
  4  3  1  0
  4  2  1  0
  5  4  1  0
  6  5  1  0
  7  1  1  6
  7  6  1  0
  8  7  1  0
 10  9  1  0
 11 10  1  0
 13 12  1  0
 15 14  1  0
 16  5  1  0
 17  9  1  0
 17  8  1  0
 18 14  1  0
 18 12  1  0
 18 11  1  0
 19 16  1  0
 20 16  1  0
  8 21  1  6
M  END
