
     RDKit          3D

 29 31  0  0  0  0  0  0  0  0999 V2000
   -2.3530    7.0230    2.8030 C   0  0  0  0  0  0  0  0  0  0  0  0
   -4.0760    6.8890    1.6500 C   0  0  0  0  0  0  0  0  0  0  0  0
   -5.8040    3.9940   -0.9580 C   0  0  0  0  0  0  0  0  0  0  0  0
   -7.9920    1.4590   -1.6180 C   0  0  0  0  0  0  0  0  0  0  0  0
   -6.5810    2.1330    0.1950 C   0  0  0  0  0  0  0  0  0  0  0  0
   -4.3310    4.7840   -2.5330 C   0  0  0  0  0  0  0  0  0  0  0  0
   -0.3580    7.2930    4.2080 C   0  0  0  0  0  0  0  0  0  0  0  0
    3.2100    6.2440    3.8290 C   0  0  2  0  0  0  0  0  0  0  0  0
    1.7760    6.4420    3.5310 C   0  0  0  0  0  0  0  0  0  0  0  0
    1.1730    5.9840    2.3980 C   0  0  0  0  0  0  0  0  0  0  0  0
   -0.1970    6.1830    2.1390 C   0  0  0  0  0  0  0  0  0  0  0  0
   -0.9420    6.8330    3.0590 C   0  0  0  0  0  0  0  0  0  0  0  0
   -3.3080    7.5790    3.5340 C   0  0  0  0  0  0  0  0  0  0  0  0
   -4.5060    7.5230    2.7860 C   0  0  0  0  0  0  0  0  0  0  0  0
   -4.9550    6.5350    0.5420 C   0  0  0  0  0  0  0  0  0  0  0  0
   -5.1320    5.1620   -1.4010 C   0  0  2  0  0  0  0  0  0  0  0  0
   -7.0540    2.3080   -0.9880 C   0  0  0  0  0  0  0  0  0  0  0  0
    0.9570    7.1280    4.4250 C   0  0  0  0  0  0  0  0  0  0  0  0
    3.9700    7.1100    3.1430 F   0  0  0  0  0  0  0  0  0  0  0  0
    3.6030    5.0320    3.5110 F   0  0  0  0  0  0  0  0  0  0  0  0
    3.5410    6.4060    5.0300 F   0  0  0  0  0  0  0  0  0  0  0  0
    1.8750    5.3420    1.5050 F   0  0  0  0  0  0  0  0  0  0  0  0
   -4.3950    5.6830   -0.3320 N   0  0  0  0  0  0  0  0  0  0  0  0
   -6.6540    3.3260   -1.6620 N   0  0  0  0  0  0  0  0  0  0  0  0
   -3.7810    4.5790   -3.4840 N   0  0  0  0  0  0  0  0  0  0  0  0
   -2.8130    6.6220    1.6350 N   0  0  0  0  0  0  0  0  0  0  0  0
   -8.5980    0.6630   -0.8920 O   0  0  0  0  0  0  0  0  0  0  0  0
   -6.0900    6.9230    0.3960 O   0  0  0  0  0  0  0  0  0  0  0  0
   -5.5460    3.2990    0.5070 S   0  0  0  0  0  0  0  0  0  0  0  0
  9  8  1  0
 10  9  1  0
 11 10  1  0
 12 11  1  0
 12  7  1  0
 12  1  1  0
 13  1  1  0
 14 13  1  0
 14  2  1  0
 15  2  1  0
 16  3  1  0
 16  6  1  6
 17  5  1  0
 17  4  1  0
 18  9  1  0
 18  7  1  0
  8 19  1  6
 20  8  1  0
 21  8  1  0
 22 10  1  0
 23 16  1  0
 23 15  1  0
 24 17  1  0
 24  3  1  0
 25  6  1  0
 26  2  1  0
 26  1  1  0
 27  4  1  0
 28 15  1  0
 29  5  1  0
 29  3  1  0
M  END
