
     RDKit          3D

 16 19  0  0  0  0  0  0  0  0999 V2000
   -4.5770   -7.7920    2.1110 C   0  0  0  0  0  0  0  0  0  0  0  0
   -5.6360   -8.1660    1.4640 C   0  0  1  0  0  0  0  0  0  0  0  0
   -6.7990   -8.8630    1.5200 N   0  0  0  0  0  0  0  0  0  0  0  0
   -7.8740   -8.3970    0.8390 C   0  0  0  0  0  0  0  0  0  0  0  0
   -7.8060   -7.2210    0.0860 C   0  0  0  0  0  0  0  0  0  0  0  0
   -6.5670   -6.5870    0.0660 C   0  0  0  0  0  0  0  0  0  0  0  0
   -5.5270   -7.0460    0.7100 C   0  0  1  0  0  0  0  0  0  0  0  0
   -4.4070   -6.2640    0.5190 N   0  0  0  0  0  0  0  0  0  0  0  0
   -4.7900   -5.2810   -0.2460 C   0  0  0  0  0  0  0  0  0  0  0  0
   -4.0950   -4.2000   -0.7480 C   0  0  0  0  0  0  0  0  0  0  0  0
   -6.1270   -5.4170   -0.5710 C   0  0  0  0  0  0  0  0  0  0  0  0
   -6.7860   -4.5310   -1.3780 C   0  0  0  0  0  0  0  0  0  0  0  0
   -6.0660   -3.4600   -1.8650 C   0  0  0  0  0  0  0  0  0  0  0  0
   -4.7400   -3.2810   -1.5510 C   0  0  0  0  0  0  0  0  0  0  0  0
   -4.0800   -2.1800   -2.0700 O   0  0  0  0  0  0  0  0  0  0  0  0
   -2.8110   -1.9430   -1.6300 C   0  0  0  0  0  0  0  0  0  0  0  0
  2  1  1  1
  3  2  1  0
  4  3  1  0
  5  4  1  0
  6  5  1  0
  7  6  1  0
  7  2  1  0
  7  1  1  1
  8  7  1  0
  9  8  1  0
 10  9  1  0
 11  6  1  0
 11  9  1  0
 12 11  1  0
 13 12  1  0
 14 13  1  0
 14 10  1  0
 15 14  1  0
 16 15  1  0
M  END
