
     RDKit          3D

 24 27  0  0  0  0  0  0  0  0999 V2000
    3.0290    3.0810   -3.2350 C   0  0  0  0  0  0  0  0  0  0  0  0
    2.4990    3.0770   -4.5120 C   0  0  0  0  0  0  0  0  0  0  0  0
    4.3950    2.9540   -2.9710 C   0  0  0  0  0  0  0  0  0  0  0  0
    2.0100    3.2130   -2.3630 N   0  0  0  0  0  0  0  0  0  0  0  0
    3.3270    2.9460   -5.6190 C   0  0  0  0  0  0  0  0  0  0  0  0
    1.2160    3.2090   -4.4500 N   0  0  0  0  0  0  0  0  0  0  0  0
    5.2290    2.8200   -4.0720 C   0  0  0  0  0  0  0  0  0  0  0  0
    0.9490    3.3220   -3.1480 C   0  0  0  0  0  0  0  0  0  0  0  0
    4.6990    2.8170   -5.3650 C   0  0  0  0  0  0  0  0  0  0  0  0
    6.6380    2.6550   -4.1740 C   0  0  0  0  0  0  0  0  0  0  0  0
   -0.6860    3.6570   -2.5180 S   0  0  0  0  0  0  0  0  0  0  0  0
    5.7030    2.6590   -6.2210 N   0  0  0  0  0  0  0  0  0  0  0  0
    6.9160    2.5650   -5.5490 C   0  0  0  0  0  0  0  0  0  0  0  0
   -0.6950    2.7900   -1.0560 C   0  0  0  0  0  0  0  0  0  0  0  0
   -1.5930    1.5150   -1.0050 C   0  0  0  0  0  0  0  0  0  0  0  0
   -1.2920    0.4660   -0.1910 C   0  0  0  0  0  0  0  0  0  0  0  0
   -2.6660    1.5410   -1.8170 N   0  0  0  0  0  0  0  0  0  0  0  0
   -2.1970   -0.5910   -0.1610 C   0  0  0  0  0  0  0  0  0  0  0  0
   -0.0380    0.4420    0.6520 C   0  0  0  0  0  0  0  0  0  0  0  0
   -3.5470    0.5610   -1.7750 C   0  0  0  0  0  0  0  0  0  0  0  0
   -3.3660   -0.5430   -0.9250 C   0  0  0  0  0  0  0  0  0  0  0  0
   -1.8900   -1.6490    0.6080 O   0  0  0  0  0  0  0  0  0  0  0  0
   -4.3940   -1.5880   -0.9040 C   0  0  0  0  0  0  0  0  0  0  0  0
   -2.5580   -2.2220    1.5530 C   0  0  0  0  0  0  0  0  0  0  0  0
  2  1  1  0
  3  1  1  0
  4  1  1  0
  5  2  1  0
  6  2  1  0
  7  3  1  0
  8  6  1  0
  8  4  1  0
  9  5  1  0
  9  7  1  0
 10  7  1  0
 11  8  1  0
 12  9  1  0
 13 12  1  0
 13 10  1  0
 14 11  1  0
 15 14  1  0
 16 15  1  0
 17 15  1  0
 18 16  1  0
 19 16  1  0
 20 17  1  0
 21 20  1  0
 21 18  1  0
 22 18  1  0
 23 21  1  0
 24 22  1  0
M  END
