
     RDKit          3D

 36 40  0  0  0  0  0  0  0  0999 V2000
    2.6940   -1.2270    3.3470 N   0  0  0  0  0  0  0  0  0  0  0  0
   -0.7160   -4.9030    3.3610 N   0  0  0  0  0  0  0  0  0  0  0  0
    0.9750   -3.2710    3.9660 C   0  0  0  0  0  0  0  0  0  0  0  0
    0.0510   -4.3670    4.2560 C   0  0  0  0  0  0  0  0  0  0  0  0
   -0.7050   -4.4340    2.2190 C   0  0  0  0  0  0  0  0  0  0  0  0
    3.9820    0.2870    5.1710 C   0  0  0  0  0  0  0  0  0  0  0  0
    2.9480    1.3900    5.5020 C   0  0  0  0  0  0  0  0  0  0  0  0
    4.8270   -2.3160    6.7320 C   0  0  0  0  0  0  0  0  0  0  0  0
   -1.8650   -6.4970    1.6150 C   0  0  0  0  0  0  0  0  0  0  0  0
    1.5340   -0.0630    0.8170 C   0  0  0  0  0  0  0  0  0  0  0  0
    3.1280    0.2380   -1.0030 C   0  0  0  0  0  0  0  0  0  0  0  0
   -0.6980   -6.3360    5.3090 C   0  0  0  0  0  0  0  0  0  0  0  0
   -0.0870   -7.3250    6.1180 C   0  0  2  0  0  0  0  0  0  0  0  0
   -0.2880   -6.9720    7.3920 C   0  0  0  0  0  0  0  0  0  0  0  0
   -0.3440   -4.5430    6.5910 C   0  0  0  0  0  0  0  0  0  0  0  0
    1.0050   -2.8480    2.7210 C   0  0  0  0  0  0  0  0  0  0  0  0
    1.9450   -1.7650    2.4420 C   0  0  2  0  0  0  0  0  0  0  0  0
    2.5960   -1.6460    4.5680 C   0  0  0  0  0  0  0  0  0  0  0  0
    1.7600   -2.6630    4.9080 N   0  0  0  0  0  0  0  0  0  0  0  0
    0.1570   -3.4010    1.8270 N   0  0  0  0  0  0  0  0  0  0  0  0
    3.3740   -0.9610    5.4960 N   0  0  0  0  0  0  0  0  0  0  0  0
    2.4750    2.0160    4.4300 O   0  0  0  0  0  0  0  0  0  0  0  0
    3.5970   -1.3700    6.7890 C   0  0  0  0  0  0  0  0  0  0  0  0
    6.0230   -1.8210    6.9440 O   0  0  0  0  0  0  0  0  0  0  0  0
   -1.6760   -5.0620    1.4850 N   0  0  0  0  0  0  0  0  0  0  0  0
   -2.8900   -4.5240    0.9860 C   0  0  0  0  0  0  0  0  0  0  0  0
   -3.9170   -4.6290    1.9740 C   0  0  0  0  0  0  0  0  0  0  0  0
   -4.7810   -3.6930    2.0900 O   0  0  0  0  0  0  0  0  0  0  0  0
   -0.9110   -7.2870    0.7580 C   0  0  0  0  0  0  0  0  0  0  0  0
    0.2960   -7.4190    1.2150 O   0  0  0  0  0  0  0  0  0  0  0  0
    2.1600   -1.2830    1.2110 N   0  0  0  0  0  0  0  0  0  0  0  0
   -0.1060   -4.9680    5.4010 N   0  0  0  0  0  0  0  0  0  0  0  0
    1.7500    0.3090   -0.5480 C   0  0  0  0  0  0  0  0  0  0  0  0
    3.7820   -0.9940   -0.5870 C   0  0  0  0  0  0  0  0  0  0  0  0
    3.5700   -1.3170    0.7660 C   0  0  0  0  0  0  0  0  0  0  0  0
   -0.0580   -5.8470    7.1420 C   0  0  2  0  0  0  0  0  0  0  0  0
  4  3  1  0
  4  2  1  0
  5  2  1  0
  7  6  1  0
 13 12  1  6
 14 13  1  0
 16  3  1  0
 17 16  1  0
 17  1  1  0
 18  1  1  0
 19 18  1  0
 19  3  1  0
 20 16  1  0
 20  5  1  0
 21 18  1  0
 21  6  1  0
 22  7  1  0
 23 21  1  0
 23  8  1  0
 24  8  1  0
 25  9  1  0
 25  5  1  0
 26 25  1  0
 27 26  1  0
 28 27  1  0
 29  9  1  0
 30 29  1  0
 17 31  1  6
 31 10  1  0
 32 12  1  0
 32  4  1  0
 32 15  1  0
 33 11  1  0
 33 10  1  0
 34 11  1  0
 35 34  1  0
 35 31  1  0
 36 14  1  1
 36 13  1  0
 36 15  1  0
M  END
