
     RDKit          3D

 24 27  0  0  0  0  0  0  0  0999 V2000
    4.5260   -6.2370    9.3370 N   0  0  0  0  0  0  0  0  0  0  0  0
    2.9580   -4.1480    6.7710 C   0  0  0  0  0  0  0  0  0  0  0  0
    2.4330   -5.1290    5.9120 C   0  0  0  0  0  0  0  0  0  0  0  0
    5.2400   -7.3630    9.6490 C   0  0  1  0  0  0  0  0  0  0  0  0
   -0.4720   -4.1840    3.6720 N   0  0  0  0  0  0  0  0  0  0  0  0
    6.5540   -9.1930    9.0200 C   0  0  0  0  0  0  0  0  0  0  0  0
    2.7810   -2.7630    6.5110 C   0  0  0  0  0  0  0  0  0  0  0  0
    6.2840   -8.7250   11.3650 C   0  0  0  0  0  0  0  0  0  0  0  0
    2.2010   -4.8890    3.4460 C   0  0  0  0  0  0  0  0  0  0  0  0
    6.8250   -9.5370   10.3470 C   0  0  0  0  0  0  0  0  0  0  0  0
    7.1870  -10.0430    7.9120 C   0  0  0  0  0  0  0  0  0  0  0  0
    1.3970   -4.5860    2.2720 C   0  0  0  0  0  0  0  0  0  0  0  0
    3.8900   -5.9130    8.2040 C   0  0  0  0  0  0  0  0  0  0  0  0
    3.6800   -4.5540    7.9340 C   0  0  0  0  0  0  0  0  0  0  0  0
    3.3820   -6.8320    7.3180 N   0  0  0  0  0  0  0  0  0  0  0  0
    5.7860   -8.1290    8.6460 N   0  0  0  0  0  0  0  0  0  0  0  0
    2.6720   -6.4810    6.2510 C   0  0  0  0  0  0  0  0  0  0  0  0
    4.1970   -3.6370    8.7650 N   0  0  0  0  0  0  0  0  0  0  0  0
    1.6220   -4.8210    4.7080 C   0  0  0  0  0  0  0  0  0  0  0  0
    0.2690   -4.4480    4.7890 C   0  0  0  0  0  0  0  0  0  0  0  0
    5.5190   -7.6360   11.0140 C   0  0  0  0  0  0  0  0  0  0  0  0
    4.0490   -2.3390    8.5090 C   0  0  0  0  0  0  0  0  0  0  0  0
    0.0720   -4.2470    2.4220 C   0  0  0  0  0  0  0  0  0  0  0  0
    3.3720   -1.8900    7.3680 C   0  0  0  0  0  0  0  0  0  0  0  0
  3  2  1  0
  4  1  1  6
  7  2  1  0
 10  6  1  0
 10  8  1  0
 11  6  1  0
 12  9  1  0
 13  1  1  0
 14 13  1  0
 14  2  1  0
 15 13  1  0
 16  4  1  0
 16  6  1  0
 17 15  1  0
 17  3  1  0
 18 14  1  0
 19  9  1  0
 19  3  1  0
 20 19  1  0
 20  5  1  0
 21  4  1  0
 21  8  1  0
 22 18  1  0
 23 12  1  0
 23  5  1  0
 24 22  1  0
 24  7  1  0
M  END
