
     RDKit          3D

 21 22  0  0  0  0  0  0  0  0999 V2000
    0.5570   -3.7910    4.2060 C   0  0  1  0  0  0  0  0  0  0  0  0
   -1.4760   -1.6680    0.1280 C   0  0  0  0  0  0  0  0  0  0  0  0
   -2.0500   -1.4020    1.3730 C   0  0  0  0  0  0  0  0  0  0  0  0
   -1.7410   -2.2490    2.4420 C   0  0  0  0  0  0  0  0  0  0  0  0
   -0.3530   -3.5420    1.0080 C   0  0  0  0  0  0  0  0  0  0  0  0
   -0.6050   -4.1980    3.3730 C   0  0  2  0  0  0  0  0  0  0  0  0
   -1.2160   -4.5650    5.5370 C   0  0  1  0  0  0  0  0  0  0  0  0
    0.0140   -3.7500    5.6190 C   0  0  1  0  0  0  0  0  0  0  0  0
   -2.2140   -4.3520    6.6070 C   0  0  0  0  0  0  0  0  0  0  0  0
   -0.8830   -3.3190    2.2840 N   0  0  0  0  0  0  0  0  0  0  0  0
   -0.6530   -2.7100   -0.0240 N   0  0  0  0  0  0  0  0  0  0  0  0
   -1.7110   -0.8690   -0.9190 N   0  0  0  0  0  0  0  0  0  0  0  0
    0.4050   -4.4770    0.8270 O   0  0  0  0  0  0  0  0  0  0  0  0
   -1.6010   -4.2470    4.2470 O   0  0  0  0  0  0  0  0  0  0  0  0
    1.5850   -4.7450    4.1400 O   0  0  0  0  0  0  0  0  0  0  0  0
    0.8690   -4.2750    6.5460 O   0  0  0  0  0  0  0  0  0  0  0  0
   -2.9940   -3.2220    6.4950 O   0  0  0  0  0  0  0  0  0  0  0  0
   -5.2760   -2.3910    7.0890 O   0  0  0  0  0  0  0  0  0  0  0  0
   -3.3460   -1.6600    8.4420 O   0  0  0  0  0  0  0  0  0  0  0  0
   -4.1330   -3.9690    8.5730 O   0  0  0  0  0  0  0  0  0  0  0  0
   -4.0110   -2.8060    7.7010 P   0  0  0  0  0  0  0  0  0  0  0  0
  3  2  1  0
  4  3  1  0
  6  1  1  0
  8  1  1  0
  8  7  1  0
  7  9  1  1
  6 10  1  6
 10  5  1  0
 10  4  1  0
 11  5  1  0
 11  2  1  0
 12  2  1  0
 13  5  1  0
 14  6  1  0
 14  7  1  0
  1 15  1  1
  8 16  1  1
 17  9  1  0
 21 20  1  0
 21 19  1  0
 21 18  1  0
 21 17  1  0
M  END
