
     RDKit          3D

 25 27  0  0  0  0  0  0  0  0999 V2000
   -0.9690   -8.6260   -2.5250 C   0  0  0  0  0  0  0  0  0  0  0  0
   -0.4770  -11.5450   -0.4770 C   0  0  0  0  0  0  0  0  0  0  0  0
   -1.1000  -12.3350    1.7500 C   0  0  0  0  0  0  0  0  0  0  0  0
   -2.7090  -14.0480    1.9910 C   0  0  0  0  0  0  0  0  0  0  0  0
    2.1860   -6.4130   -4.6050 C   0  0  1  0  0  0  0  0  0  0  0  0
    3.1850   -7.2760   -5.0950 C   0  0  0  0  0  0  0  0  0  0  0  0
    3.4760   -7.3790   -6.4250 C   0  0  0  0  0  0  0  0  0  0  0  0
    1.7330   -5.7740   -6.8880 C   0  0  0  0  0  0  0  0  0  0  0  0
    2.4780   -5.4420   -2.4190 C   0  0  0  0  0  0  0  0  0  0  0  0
    3.5570   -4.6190   -2.9310 C   0  0  0  0  0  0  0  0  0  0  0  0
    4.5350   -4.2900   -1.8550 C   0  0  0  0  0  0  0  0  0  0  0  0
    0.9750   -7.1330   -2.5810 C   0  0  2  0  0  0  0  0  0  0  0  0
    1.6290   -8.1060   -1.7350 C   0  0  0  0  0  0  0  0  0  0  0  0
    0.7450   -9.0630   -1.0520 C   0  0  0  0  0  0  0  0  0  0  0  0
   -0.0780   -7.7700   -3.3550 C   0  0  0  0  0  0  0  0  0  0  0  0
   -1.1790  -10.5310   -1.2110 C   0  0  0  0  0  0  0  0  0  0  0  0
   -1.2290  -12.4280    0.3790 C   0  0  0  0  0  0  0  0  0  0  0  0
   -1.8370  -13.1180    2.5620 C   0  0  0  0  0  0  0  0  0  0  0  0
   -2.8320  -14.1670    0.6220 C   0  0  0  0  0  0  0  0  0  0  0  0
   -2.0830  -13.3630   -0.1710 C   0  0  0  0  0  0  0  0  0  0  0  0
    2.7330   -6.5990   -7.3330 C   0  0  0  0  0  0  0  0  0  0  0  0
    1.4600   -5.7020   -5.5390 C   0  0  0  0  0  0  0  0  0  0  0  0
    1.8710   -6.3330   -3.2520 N   0  0  0  0  0  0  0  0  0  0  0  0
   -0.3040   -9.6220   -1.9300 N   0  0  0  0  0  0  0  0  0  0  0  0
    2.1350   -5.3380   -1.2620 O   0  0  0  0  0  0  0  0  0  0  0  0
  6  5  1  0
  7  6  1  0
 10  9  1  0
 11 10  1  0
 13 12  1  0
 14 13  1  0
 15 12  1  0
 15  1  1  0
 16  2  1  0
 17  3  1  0
 17  2  1  0
 18  4  1  0
 18  3  1  0
 19  4  1  0
 20 19  1  0
 20 17  1  0
 21  8  1  0
 21  7  1  0
 22  8  1  0
 22  5  1  0
 12 23  1  6
  5 23  1  6
 23  9  1  0
 24 16  1  0
 24 14  1  0
 24  1  1  0
 25  9  1  0
M  END
