
     RDKit          3D

 17 18  0  0  0  0  0  0  0  0999 V2000
    5.9160   11.4360   -2.6370 C   0  0  0  0  0  0  0  0  0  0  0  0
    8.8040    6.4580   -6.5720 C   0  0  1  0  0  0  0  0  0  0  0  0
   10.1410    6.4520   -6.2320 C   0  0  0  0  0  0  0  0  0  0  0  0
   10.5310    5.1410   -6.4870 C   0  0  0  0  0  0  0  0  0  0  0  0
    9.4460    4.4740   -6.9460 C   0  0  0  0  0  0  0  0  0  0  0  0
    4.7170   10.4880   -2.6990 C   0  0  1  0  0  0  0  0  0  0  0  0
    3.5210   10.7920   -2.2190 C   0  0  0  0  0  0  0  0  0  0  0  0
    2.4720    9.9690   -2.1640 C   0  0  0  0  0  0  0  0  0  0  0  0
    2.5520    8.7810   -2.7550 C   0  0  0  0  0  0  0  0  0  0  0  0
    3.7450    8.4600   -3.3360 C   0  0  0  0  0  0  0  0  0  0  0  0
    4.8350    9.3120   -3.3540 C   0  0  0  0  0  0  0  0  0  0  0  0
    6.3570    8.4690   -5.0860 C   0  0  2  0  0  0  0  0  0  0  0  0
    7.9560    7.6140   -6.5820 C   0  0  0  0  0  0  0  0  0  0  0  0
    5.9800    9.0280   -3.9630 N   0  0  0  0  0  0  0  0  0  0  0  0
    7.5710    8.0490   -5.3070 N   0  0  0  0  0  0  0  0  0  0  0  0
    8.3980    5.3070   -7.0240 O   0  0  0  0  0  0  0  0  0  0  0  0
    5.2120    8.3940   -6.2980 S   0  0  0  0  0  0  0  0  0  0  0  0
  3  2  1  0
  4  3  1  0
  5  4  1  0
  6  1  1  6
  7  6  1  0
  8  7  1  0
  9  8  1  0
 10  9  1  0
 11 10  1  0
 11  6  1  0
  2 13  1  6
 14 11  1  0
 14 12  1  0
 15 13  1  0
 15 12  1  0
 16  5  1  0
 16  2  1  0
 12 17  1  6
M  END
