
     RDKit          3D

 25 24  0  0  0  0  0  0  0  0999 V2000
    7.8590    1.3260   -4.4600 C   0  0  0  0  0  0  0  0  0  0  0  0
    3.0970   -3.6860   -3.6450 C   0  0  0  0  0  0  0  0  0  0  0  0
    8.6400   -0.7680   -5.3230 C   0  0  1  0  0  0  0  0  0  0  0  0
    5.1700    0.9620   -3.3870 C   0  0  0  0  0  0  0  0  0  0  0  0
    8.5600   -2.0830   -4.7590 C   0  0  0  0  0  0  0  0  0  0  0  0
    3.7620    1.0390   -3.5630 C   0  0  0  0  0  0  0  0  0  0  0  0
    3.0530   -0.0770   -4.1140 C   0  0  1  0  0  0  0  0  0  0  0  0
    2.6930    0.1880   -5.5510 C   0  0  0  0  0  0  0  0  0  0  0  0
    2.6690   -2.2970   -3.5030 C   0  0  2  0  0  0  0  0  0  0  0  0
    8.0200   -1.1110   -6.5100 C   0  0  1  0  0  0  0  0  0  0  0  0
   10.0800    4.4770   -2.5050 C   0  0  0  0  0  0  0  0  0  0  0  0
    8.1190    3.2300   -3.0750 N   0  0  0  0  0  0  0  0  0  0  0  0
    7.9950    0.0600   -4.3650 N   0  0  0  0  0  0  0  0  0  0  0  0
    9.3120    3.1950   -2.5300 C   0  0  0  0  0  0  0  0  0  0  0  0
    3.4740   -1.3490   -4.0660 N   0  0  0  0  0  0  0  0  0  0  0  0
    5.9000    2.2600   -3.3790 C   0  0  0  0  0  0  0  0  0  0  0  0
    9.8030    2.2070   -2.0600 O   0  0  0  0  0  0  0  0  0  0  0  0
    7.3860    2.0070   -3.2110 C   0  0  1  0  0  0  0  0  0  0  0  0
    8.1410    1.9370   -5.4460 O   0  0  0  0  0  0  0  0  0  0  0  0
    8.8390   -1.1850   -7.5880 N   0  0  0  0  0  0  0  0  0  0  0  0
    3.5430    0.1020   -6.4070 O   0  0  0  0  0  0  0  0  0  0  0  0
    1.5700    0.4700   -5.7870 O   0  0  0  0  0  0  0  0  0  0  0  0
    1.7390   -2.0080   -2.8540 O   0  0  0  0  0  0  0  0  0  0  0  0
    6.8530   -1.4710   -6.5180 O   0  0  0  0  0  0  0  0  0  0  0  0
    8.3770   -1.5920   -8.7310 O   0  0  0  0  0  0  0  0  0  0  0  0
  3  5  1  1
  6  4  1  0
  7  6  1  6
  8  7  1  0
  9  2  1  1
 10  3  1  0
 13  3  1  0
 13  1  1  0
 14 12  1  0
 14 11  1  0
 15  9  1  0
 15  7  1  0
 16  4  1  0
 17 14  1  0
 18 16  1  6
 18 12  1  0
 18  1  1  0
 19  1  1  0
 20 10  1  0
 21  8  1  0
 22  8  1  0
 23  9  1  0
 10 24  1  1
 25 20  1  0
M  END
