
     RDKit          3D

 33 36  0  0  0  0  0  0  0  0999 V2000
    2.7230    0.8330    2.0080 C   0  0  0  0  0  0  0  0  0  0  0  0
    3.1470    0.8700    0.7070 C   0  0  2  0  0  0  0  0  0  0  0  0
    4.9980    2.1320    1.3480 C   0  0  0  0  0  0  0  0  0  0  0  0
    6.1900    2.8620    0.9330 C   0  0  0  0  0  0  0  0  0  0  0  0
    2.1210   -1.0420   -0.6810 C   0  0  0  0  0  0  0  0  0  0  0  0
    1.0240   -0.3570   -0.1620 C   0  0  0  0  0  0  0  0  0  0  0  0
    7.5280    3.5200   -0.9170 C   0  0  0  0  0  0  0  0  0  0  0  0
    7.6490    3.6250   -2.3180 C   0  0  0  0  0  0  0  0  0  0  0  0
    8.6080    4.2110   -0.3940 C   0  0  0  0  0  0  0  0  0  0  0  0
    9.2580    4.6460   -3.8530 C   0  0  0  0  0  0  0  0  0  0  0  0
    6.7730    3.0370   -3.3070 C   0  0  0  0  0  0  0  0  0  0  0  0
    4.7390    2.9130    7.4740 C   0  0  0  0  0  0  0  0  0  0  0  0
    5.2560    4.0150    6.8070 N   0  0  0  0  0  0  0  0  0  0  0  0
    5.4210    3.8890    5.5020 C   0  0  0  0  0  0  0  0  0  0  0  0
    5.0350    2.7300    4.8630 C   0  0  2  0  0  0  0  0  0  0  0  0
    4.5640    1.6730    5.5540 C   0  0  0  0  0  0  0  0  0  0  0  0
    4.3940    1.7700    6.8500 N   0  0  0  0  0  0  0  0  0  0  0  0
    5.2910    2.6860    3.5520 N   0  0  0  0  0  0  0  0  0  0  0  0
    4.5830    2.0910    2.6280 C   0  0  0  0  0  0  0  0  0  0  0  0
    3.4420    1.4180    2.9230 N   0  0  0  0  0  0  0  0  0  0  0  0
    4.2900    1.5030    0.3740 N   0  0  0  0  0  0  0  0  0  0  0  0
    2.3100    0.2710   -0.3810 C   0  0  1  0  0  0  0  0  0  0  0  0
    6.4930    2.8500   -0.3520 N   0  0  0  0  0  0  0  0  0  0  0  0
    6.8650    3.4640    1.7250 O   0  0  0  0  0  0  0  0  0  0  0  0
    8.7210    4.2960   -2.6010 N   0  0  0  0  0  0  0  0  0  0  0  0
    9.3650    4.6620   -1.4230 N   0  0  0  0  0  0  0  0  0  0  0  0
    6.7820    3.2730   -4.4640 O   0  0  0  0  0  0  0  0  0  0  0  0
    5.9180    2.1860   -2.8690 N   0  0  0  0  0  0  0  0  0  0  0  0
    4.9560    1.5080   -3.7100 C   0  0  0  0  0  0  0  0  0  0  0  0
    4.8790    0.0820   -3.4100 C   0  0  1  0  0  0  0  0  0  0  0  0
    4.8700   -0.0350   -1.9860 O   0  0  0  0  0  0  0  0  0  0  0  0
    3.6140   -0.5090   -3.9950 C   0  0  0  0  0  0  0  0  0  0  0  0
    6.0900   -0.6930   -3.8460 C   0  0  0  0  0  0  0  0  0  0  0  0
  2  1  1  6
  4  3  1  0
  6  5  1  0
  8  7  1  0
  9  7  1  0
 11  8  1  0
 13 12  1  0
 14 13  1  0
 15 14  1  0
 16 15  1  0
 17 16  1  0
 17 12  1  0
 15 18  1  1
 19 18  1  0
 19  3  1  0
 20 19  1  0
 20  1  1  0
 21  3  1  0
 21  2  1  0
 22  6  1  1
 22  5  1  0
 22  2  1  0
 23  7  1  0
 23  4  1  0
 24  4  1  0
 25 10  1  0
 25  8  1  0
 26 25  1  0
 26  9  1  0
 27 11  1  0
 28 11  1  0
 29 28  1  0
 30 29  1  0
 31 30  1  0
 30 32  1  6
 33 30  1  0
M  END
