
     RDKit          3D

 36 39  0  0  0  0  0  0  0  0999 V2000
   -2.6570   -2.1970    1.0550 C   0  0  0  0  0  0  0  0  0  0  0  0
   -2.0230   -1.9790    2.2110 C   0  0  0  0  0  0  0  0  0  0  0  0
   -4.1370   -1.9720    3.4070 C   0  0  0  0  0  0  0  0  0  0  0  0
   -4.7640   -2.2090    2.2050 C   0  0  0  0  0  0  0  0  0  0  0  0
   -2.7460   -1.8600    3.4260 C   0  0  0  0  0  0  0  0  0  0  0  0
   -4.0400   -2.3210    1.0170 C   0  0  0  0  0  0  0  0  0  0  0  0
   -1.9760   -2.2900   -0.0650 F   0  0  0  0  0  0  0  0  0  0  0  0
   -2.1360   -1.6510    4.6740 O   0  0  0  0  0  0  0  0  0  0  0  0
   -0.7060   -1.6080    4.6250 C   0  0  0  0  0  0  0  0  0  0  0  0
   -0.0760   -1.5570    5.9580 C   0  0  0  0  0  0  0  0  0  0  0  0
   -4.9920   -1.8850    4.6430 C   0  0  0  0  0  0  0  0  0  0  0  0
   -4.6350   -1.5550    5.8530 N   0  0  0  0  0  0  0  0  0  0  0  0
   -5.6780   -1.6380    6.6010 C   0  0  0  0  0  0  0  0  0  0  0  0
   -6.7570   -2.0440    5.8010 C   0  0  0  0  0  0  0  0  0  0  0  0
   -6.2650   -2.1800    4.5680 O   0  0  0  0  0  0  0  0  0  0  0  0
   -8.1960   -2.3090    6.1590 C   0  0  0  0  0  0  0  0  0  0  0  0
   -5.6680   -1.3340    8.0330 C   0  0  0  0  0  0  0  0  0  0  0  0
   -4.3940   -1.6450    8.6410 C   0  0  0  0  0  0  0  0  0  0  0  0
   -4.0420   -0.7400    9.5210 O   0  0  0  0  0  0  0  0  0  0  0  0
   -2.6800   -0.7720    9.9560 C   0  0  0  0  0  0  0  0  0  0  0  0
   -1.8540   -1.8000    9.6880 C   0  0  0  0  0  0  0  0  0  0  0  0
   -0.0300   -0.7660   10.9070 C   0  0  0  0  0  0  0  0  0  0  0  0
   -0.5350   -1.7970   10.1630 C   0  0  0  0  0  0  0  0  0  0  0  0
   -2.2090    0.3190   10.7190 C   0  0  0  0  0  0  0  0  0  0  0  0
   -0.8720    0.3460   11.1920 C   0  0  0  0  0  0  0  0  0  0  0  0
   -1.3020    2.5030   12.1970 C   0  0  0  0  0  0  0  0  0  0  0  0
   -2.5900    2.4880   11.7440 C   0  0  0  0  0  0  0  0  0  0  0  0
   -0.4480    1.4520   11.9240 C   0  0  0  0  0  0  0  0  0  0  0  0
   -3.0270    1.4310   11.0260 C   0  0  0  0  0  0  0  0  0  0  0  0
    1.4050   -0.7510   11.4170 C   0  0  0  0  0  0  0  0  0  0  0  0
    2.2430   -1.8370   11.0740 C   0  0  1  0  0  0  0  0  0  0  0  0
    3.6250   -1.6560   11.5920 C   0  0  2  0  0  0  0  0  0  0  0  0
    1.7300   -3.0580   11.4860 O   0  0  0  0  0  0  0  0  0  0  0  0
    1.8850   -4.1320   10.6190 C   0  0  0  0  0  0  0  0  0  0  0  0
    4.0690   -2.2810   12.5990 O   0  0  0  0  0  0  0  0  0  0  0  0
    4.4010   -0.7760   11.0470 O   0  0  0  0  0  0  0  0  0  0  0  0
  2  1  1  0
  4  3  1  0
  5  3  1  0
  5  2  1  0
  6  4  1  0
  6  1  1  0
  7  1  1  0
  8  5  1  0
  9  8  1  0
 10  9  1  0
 11  3  1  0
 12 11  1  0
 13 12  1  0
 14 13  1  0
 15 14  1  0
 15 11  1  0
 16 14  1  0
 17 13  1  0
 18 17  1  0
 19 18  1  0
 20 19  1  0
 21 20  1  0
 23 21  1  0
 23 22  1  0
 24 20  1  0
 25 24  1  0
 25 22  1  0
 27 26  1  0
 28 26  1  0
 28 25  1  0
 29 24  1  0
 29 27  1  0
 30 22  1  0
 31 30  1  1
 32 31  1  0
 33 31  1  0
 34 33  1  0
 32 35  1  1
 36 32  1  0
M  END
