
     RDKit          3D

 16 15  0  0  0  0  0  0  0  0999 V2000
   -1.5740   -4.4270   -5.3170 C   0  0  0  0  0  0  0  0  0  0  0  0
   -2.8670   -4.3730   -5.6080 O   0  0  0  0  0  0  0  0  0  0  0  0
   -1.5070   -5.3540   -4.2990 C   0  0  2  0  0  0  0  0  0  0  0  0
   -2.6110   -5.0940   -3.6220 N   0  0  0  0  0  0  0  0  0  0  0  0
   -0.3370   -5.5150   -3.5240 C   0  0  1  0  0  0  0  0  0  0  0  0
    0.1850   -4.4070   -3.1350 O   0  0  0  0  0  0  0  0  0  0  0  0
   -0.4420   -6.5310   -2.5170 C   0  0  2  0  0  0  0  0  0  0  0  0
   -1.5450   -7.3110   -2.6760 O   0  0  0  0  0  0  0  0  0  0  0  0
   -0.2900   -5.9760   -1.1610 C   0  0  2  0  0  0  0  0  0  0  0  0
    1.0150   -5.5600   -1.0270 O   0  0  0  0  0  0  0  0  0  0  0  0
   -0.6390   -6.9690   -0.1090 C   0  0  0  0  0  0  0  0  0  0  0  0
   -0.0950   -8.1830   -0.3710 O   0  0  0  0  0  0  0  0  0  0  0  0
   -0.6370   -9.4960    0.3580 P   0  0  0  0  0  0  0  0  0  0  0  0
   -0.3310   -9.3860    1.7880 O   0  0  0  0  0  0  0  0  0  0  0  0
    0.0470  -10.6090   -0.3090 O   0  0  0  0  0  0  0  0  0  0  0  0
   -2.1220   -9.4910    0.1270 O   0  0  0  0  0  0  0  0  0  0  0  0
  2  1  1  0
  3  1  1  0
  3  4  1  1
  5  3  1  0
  5  6  1  1
  7  5  1  0
  7  8  1  1
  9  7  1  0
  9 10  1  1
 11  9  1  0
 12 11  1  0
 13 12  1  0
 14 13  1  0
 15 13  1  0
 16 13  1  0
M  END
