
     RDKit          3D

 42 48  0  0  0  0  0  0  0  0999 V2000
   -1.0660   -4.4160   -0.8170 C   0  0  0  0  0  0  0  0  0  0  0  0
    0.9870   -4.8640    0.5550 C   0  0  0  0  0  0  0  0  0  0  0  0
   -2.9050    0.4680    6.3440 C   0  0  0  0  0  0  0  0  0  0  0  0
    1.4650   -6.8840   -0.0570 C   0  0  0  0  0  0  0  0  0  0  0  0
    0.3080   -6.5220   -0.7620 C   0  0  0  0  0  0  0  0  0  0  0  0
   -3.6520    1.4360    8.1050 C   0  0  0  0  0  0  0  0  0  0  0  0
   -2.9210   -2.1730    4.6430 C   0  0  1  0  0  0  0  0  0  0  0  0
   -2.1800   -1.5850    5.6640 C   0  0  1  0  0  0  0  0  0  0  0  0
   -3.4390    1.1540    8.7750 C   0  0  0  0  0  0  0  0  0  0  0  0
   -1.1130   -3.3960    5.1170 C   0  0  0  0  0  0  0  0  0  0  0  0
   -2.4330    0.2000    8.9470 C   0  0  1  0  0  0  0  0  0  0  0  0
   -2.1690   -4.6210    0.1120 C   0  0  2  0  0  0  0  0  0  0  0  0
   -1.9870   -0.5820    7.9110 C   0  0  0  0  0  0  0  0  0  0  0  0
   -3.9030   -1.6320    3.7710 C   0  0  1  0  0  0  0  0  0  0  0  0
   -3.5410   -0.6280    2.8420 C   0  0  0  0  0  0  0  0  0  0  0  0
   -4.3940   -0.1400    1.9820 C   0  0  0  0  0  0  0  0  0  0  0  0
   -5.4700   -0.8010    1.9910 C   0  0  0  0  0  0  0  0  0  0  0  0
   -6.0840   -1.6910    2.7840 C   0  0  0  0  0  0  0  0  0  0  0  0
   -5.2080   -2.1770    3.6400 C   0  0  0  0  0  0  0  0  0  0  0  0
   -0.4180   -7.3140   -1.7500 C   0  0  1  0  0  0  0  0  0  0  0  0
   -1.4670   -8.1710   -1.4370 C   0  0  0  0  0  0  0  0  0  0  0  0
   -2.1160   -8.8940   -2.3780 C   0  0  0  0  0  0  0  0  0  0  0  0
   -1.9990   -4.4060    1.4450 C   0  0  0  0  0  0  0  0  0  0  0  0
   -1.7680   -8.7490   -3.7140 C   0  0  0  0  0  0  0  0  0  0  0  0
   -0.7730   -7.8870   -4.0730 C   0  0  0  0  0  0  0  0  0  0  0  0
   -0.1070   -7.1810   -3.1000 C   0  0  0  0  0  0  0  0  0  0  0  0
    2.1940   -8.1570   -0.1070 C   0  0  1  0  0  0  0  0  0  0  0  0
    2.4220   -8.8640   -1.2600 C   0  0  0  0  0  0  0  0  0  0  0  0
    3.1640  -10.0480   -1.3270 C   0  0  0  0  0  0  0  0  0  0  0  0
    3.7170  -10.5650   -0.1600 C   0  0  0  0  0  0  0  0  0  0  0  0
    3.4870   -9.8750    1.0580 C   0  0  0  0  0  0  0  0  0  0  0  0
    2.7760   -8.6840    1.0580 C   0  0  0  0  0  0  0  0  0  0  0  0
   -2.9630   -4.6010    2.3140 C   0  0  0  0  0  0  0  0  0  0  0  0
   -4.2120   -5.0460    1.8200 C   0  0  0  0  0  0  0  0  0  0  0  0
   -4.3870   -5.3520    0.5070 C   0  0  0  0  0  0  0  0  0  0  0  0
   -3.3320   -5.1250   -0.3530 C   0  0  0  0  0  0  0  0  0  0  0  0
   -2.3880   -0.5960    6.5690 C   0  0  0  0  0  0  0  0  0  0  0  0
   -2.7280   -4.4190    3.7500 C   0  0  0  0  0  0  0  0  0  0  0  0
    1.7970   -5.8290    0.7460 N   0  0  0  0  0  0  0  0  0  0  0  0
   -2.2700   -3.3320    4.3690 N   0  0  0  0  0  0  0  0  0  0  0  0
   -1.0020   -2.3220    5.7820 N   0  0  0  0  0  0  0  0  0  0  0  0
    0.0390   -5.2760   -0.3810 N   0  0  0  0  0  0  0  0  0  0  0  0
  5  4  1  0
  8  7  1  0
  9  6  1  0
 11  9  1  0
 11  6  1  0
 12  1  1  1
 11 13  1  6
 14  7  1  0
 14 15  1  6
 16 15  1  0
 17 16  1  0
 18 17  1  0
 19 18  1  0
 19 14  1  0
 20  5  1  6
 21 20  1  0
 22 21  1  0
 23 12  1  0
 24 22  1  0
 25 24  1  0
 26 25  1  0
 26 20  1  0
 27  4  1  6
 28 27  1  0
 29 28  1  0
 30 29  1  0
 31 30  1  0
 32 31  1  0
 32 27  1  0
 33 23  1  0
 34 33  1  0
 35 34  1  0
 36 35  1  0
 36 12  1  0
 37 13  1  0
  8 37  1  1
 37  3  1  0
 38 33  1  0
 39  4  1  0
 39  2  1  0
 40 38  1  0
 40 10  1  0
  7 40  1  6
 41 10  1  0
 41  8  1  0
 42  5  1  0
 42  2  1  0
 42  1  1  0
M  END
