
     RDKit          3D

 32 36  0  0  0  0  0  0  0  0999 V2000
    1.1520    4.6470    5.1530 N   0  0  0  0  0  0  0  0  0  0  0  0
    1.2770    4.5320    3.7330 C   0  0  1  0  0  0  0  0  0  0  0  0
    2.1290    5.5300    3.0470 C   0  0  0  0  0  0  0  0  0  0  0  0
    1.6170    6.2620    2.3320 O   0  0  0  0  0  0  0  0  0  0  0  0
    1.2740    3.1210    3.3670 C   0  0  0  0  0  0  0  0  0  0  0  0
    1.7790    2.4500    4.5880 C   0  0  0  0  0  0  0  0  0  0  0  0
    1.2580    3.3360    5.6760 C   0  0  0  0  0  0  0  0  0  0  0  0
    0.9480    5.8010    5.7860 C   0  0  0  0  0  0  0  0  0  0  0  0
    4.3270    6.3480    2.7350 C   0  0  1  0  0  0  0  0  0  0  0  0
    3.9430    7.5300    2.1020 C   0  0  0  0  0  0  0  0  0  0  0  0
    4.9080    8.3470    1.7070 C   0  0  0  0  0  0  0  0  0  0  0  0
    6.2410    8.0410    1.9560 C   0  0  0  0  0  0  0  0  0  0  0  0
    6.5890    6.8840    2.4900 C   0  0  0  0  0  0  0  0  0  0  0  0
    5.6330    6.0360    2.9060 C   0  0  0  0  0  0  0  0  0  0  0  0
    6.2850    4.9520    3.4490 C   0  0  0  0  0  0  0  0  0  0  0  0
    0.3060    5.8990    7.1300 C   0  0  2  0  0  0  0  0  0  0  0  0
    1.2120    5.9720    8.2640 C   0  0  0  0  0  0  0  0  0  0  0  0
    1.3860    7.1760    8.9240 C   0  0  0  0  0  0  0  0  0  0  0  0
    2.2160    7.2760    9.9540 C   0  0  0  0  0  0  0  0  0  0  0  0
    2.9130    6.2360   10.3770 C   0  0  0  0  0  0  0  0  0  0  0  0
    2.7600    5.0390    9.7510 C   0  0  0  0  0  0  0  0  0  0  0  0
    1.9290    4.9180    8.7260 C   0  0  0  0  0  0  0  0  0  0  0  0
    3.9770    5.3720   12.2230 C   0  0  0  0  0  0  0  0  0  0  0  0
   -0.7240    4.8260    7.3870 C   0  0  0  0  0  0  0  0  0  0  0  0
   -2.0860    5.3690    7.2980 C   0  0  0  0  0  0  0  0  0  0  0  0
   -1.9060    6.7510    6.6940 C   0  0  0  0  0  0  0  0  0  0  0  0
   -0.6010    7.1060    7.0560 C   0  0  0  0  0  0  0  0  0  0  0  0
    3.3970    5.5290    3.2470 N   0  0  0  0  0  0  0  0  0  0  0  0
    7.5580    5.1920    3.3380 N   0  0  0  0  0  0  0  0  0  0  0  0
    7.7180    6.3470    2.7710 N   0  0  0  0  0  0  0  0  0  0  0  0
    1.2740    6.8390    5.3870 O   0  0  0  0  0  0  0  0  0  0  0  0
    3.7580    6.4250   11.3900 O   0  0  0  0  0  0  0  0  0  0  0  0
  2  1  1  0
  2  3  1  1
  4  3  1  0
  5  2  1  0
  6  5  1  0
  7  6  1  0
  7  1  1  0
  8  1  1  0
 10  9  1  0
 11 10  1  0
 12 11  1  0
 13 12  1  0
 14  9  1  0
 14 13  1  0
 15 14  1  0
 16  8  1  6
 17 16  1  0
 18 17  1  0
 19 18  1  0
 20 19  1  0
 21 20  1  0
 22 21  1  0
 22 17  1  0
 24 16  1  0
 25 24  1  0
 26 25  1  0
 27 26  1  0
 27 16  1  0
  9 28  1  1
 28  3  1  0
 29 15  1  0
 30 29  1  0
 30 13  1  0
 31  8  1  0
 32 23  1  0
 32 20  1  0
M  END
