
     RDKit          3D

 32 36  0  0  0  0  0  0  0  0999 V2000
   -5.8930   -1.4350    2.7590 C   0  0  2  0  0  0  0  0  0  0  0  0
   -3.2990    0.7850    1.9110 C   0  0  0  0  0  0  0  0  0  0  0  0
    1.7230    4.6570    1.7250 C   0  0  0  0  0  0  0  0  0  0  0  0
   -3.3210    2.2010    2.1590 C   0  0  1  0  0  0  0  0  0  0  0  0
   -5.3480    1.9640    3.5570 C   0  0  0  0  0  0  0  0  0  0  0  0
   -4.0800    2.6690    3.3330 C   0  0  0  0  0  0  0  0  0  0  0  0
   -6.5060   -2.7230    2.8250 C   0  0  1  0  0  0  0  0  0  0  0  0
    0.0550    4.8010   -1.3330 C   0  0  0  0  0  0  0  0  0  0  0  0
   -5.7750   -3.8480    2.4010 C   0  0  0  0  0  0  0  0  0  0  0  0
   -7.7560   -2.8980    3.3480 C   0  0  0  0  0  0  0  0  0  0  0  0
   -6.3400   -5.1160    2.5050 C   0  0  0  0  0  0  0  0  0  0  0  0
   -8.3400   -4.1460    3.4520 C   0  0  0  0  0  0  0  0  0  0  0  0
   -7.6200   -5.2960    3.0310 C   0  0  0  0  0  0  0  0  0  0  0  0
    2.4230    3.4820    4.6090 C   0  0  0  0  0  0  0  0  0  0  0  0
    0.2580    3.5770    3.5320 C   0  0  1  0  0  0  0  0  0  0  0  0
   -0.8860    3.2870    3.7040 O   0  0  0  0  0  0  0  0  0  0  0  0
    0.9840    3.3380    4.5830 N   0  0  0  0  0  0  0  0  0  0  0  0
   -0.3000    3.9890    1.0510 C   0  0  0  0  0  0  0  0  0  0  0  0
    0.5540    4.0350    2.1470 C   0  0  1  0  0  0  0  0  0  0  0  0
   -4.4520    0.0710    2.3290 C   0  0  1  0  0  0  0  0  0  0  0  0
   -4.7330   -1.1940    2.0820 N   0  0  0  0  0  0  0  0  0  0  0  0
   -1.6730    3.4760    0.9830 C   0  0  0  0  0  0  0  0  0  0  0  0
   -5.3800    0.6230    3.1520 N   0  0  0  0  0  0  0  0  0  0  0  0
    0.4440    4.5650    0.0460 N   0  0  0  0  0  0  0  0  0  0  0  0
    1.6270    4.9340    0.4760 N   0  0  0  0  0  0  0  0  0  0  0  0
   -6.3250   -0.2720    3.4190 C   0  0  0  0  0  0  0  0  0  0  0  0
   -2.0070    2.8110    2.0420 N   0  0  0  0  0  0  0  0  0  0  0  0
   -2.4130    3.6350    0.0130 O   0  0  0  0  0  0  0  0  0  0  0  0
    3.0590    3.5370    5.9170 C   0  0  0  0  0  0  0  0  0  0  0  0
    2.4040    2.9560    7.0230 O   0  0  0  0  0  0  0  0  0  0  0  0
    0.3040    2.8150    5.7680 C   0  0  0  0  0  0  0  0  0  0  0  0
    1.0130    2.9470    7.0520 C   0  0  0  0  0  0  0  0  0  0  0  0
  4  2  1  0
  6  5  1  0
  6  4  1  0
  7  1  1  0
  7  9  1  1
 10  7  1  0
 11  9  1  0
 12 10  1  0
 13 12  1  0
 13 11  1  0
 15 16  1  6
 17 15  1  0
 17 14  1  0
 19 18  1  0
 19 15  1  0
 19  3  1  1
 20  2  1  1
 21  1  1  0
 21 20  1  0
 22 18  1  0
 23 20  1  0
 23  5  1  0
 24 18  1  0
 24  8  1  0
 25 24  1  0
 25  3  1  0
  1 26  1  1
 26 23  1  0
 27 22  1  0
  4 27  1  1
 28 22  1  0
 29 14  1  0
 30 29  1  0
 31 17  1  0
 32 31  1  0
 32 30  1  0
M  END
