
     RDKit          3D

 30 33  0  0  0  0  0  0  0  0999 V2000
   -5.8350    0.4990   -2.5380 C   0  0  0  0  0  0  0  0  0  0  0  0
   -4.5100    0.0970   -2.3790 C   0  0  2  0  0  0  0  0  0  0  0  0
   -1.8120   -5.2280   -1.1230 C   0  0  0  0  0  0  0  0  0  0  0  0
   -1.9280   -3.8500   -1.1650 C   0  0  0  0  0  0  0  0  0  0  0  0
   -3.1570   -1.8010   -1.7530 C   0  0  0  0  0  0  0  0  0  0  0  0
   -5.1510   -6.2720   -2.5970 C   0  0  0  0  0  0  0  0  0  0  0  0
   -5.6540   -5.9900   -6.1230 C   0  0  0  0  0  0  0  0  0  0  0  0
   -7.0260   -7.5730   -6.4960 C   0  0  0  0  0  0  0  0  0  0  0  0
   -7.9470   -8.4090   -7.2310 C   0  0  1  0  0  0  0  0  0  0  0  0
   -9.6800  -10.0440   -8.7070 C   0  0  0  0  0  0  0  0  0  0  0  0
   -9.0110   -8.9540   -9.3270 C   0  0  0  0  0  0  0  0  0  0  0  0
   -3.5150    1.0420   -2.4780 C   0  0  0  0  0  0  0  0  0  0  0  0
   -3.8260    2.3290   -2.7050 N   0  0  0  0  0  0  0  0  0  0  0  0
   -5.1450    2.6810   -2.8530 C   0  0  0  0  0  0  0  0  0  0  0  0
   -6.1680    1.7780   -2.7640 N   0  0  0  0  0  0  0  0  0  0  0  0
   -4.2730   -1.2610   -2.2180 N   0  0  0  0  0  0  0  0  0  0  0  0
   -2.9330   -6.0690   -1.5710 C   0  0  0  0  0  0  0  0  0  0  0  0
   -4.0510   -5.4110   -2.1120 N   0  0  0  0  0  0  0  0  0  0  0  0
   -4.1690   -4.0590   -2.1730 C   0  0  0  0  0  0  0  0  0  0  0  0
   -3.1050   -3.2200   -1.6940 C   0  0  0  0  0  0  0  0  0  0  0  0
   -5.2490   -3.5680   -2.6680 O   0  0  0  0  0  0  0  0  0  0  0  0
   -2.1850   -1.1150   -1.3850 O   0  0  0  0  0  0  0  0  0  0  0  0
   -4.7020   -6.7710   -3.9430 C   0  0  0  0  0  0  0  0  0  0  0  0
   -5.6680   -6.7960   -5.0510 C   0  0  2  0  0  0  0  0  0  0  0  0
   -6.4690   -6.4670   -7.0240 O   0  0  0  0  0  0  0  0  0  0  0  0
   -6.5730   -7.7660   -5.2910 N   0  0  0  0  0  0  0  0  0  0  0  0
   -8.1460   -8.1910   -8.6050 C   0  0  0  0  0  0  0  0  0  0  0  0
   -9.4470  -10.2870   -7.3300 C   0  0  0  0  0  0  0  0  0  0  0  0
   -8.5800   -9.5060   -6.6260 C   0  0  0  0  0  0  0  0  0  0  0  0
   -4.8650   -4.7430   -6.4340 C   0  0  0  0  0  0  0  0  0  0  0  0
  2  1  1  0
  4  3  1  0
  9  8  1  6
 11 10  1  0
 12  2  1  0
 13 12  1  0
 14 13  1  0
 15  1  1  0
 15 14  1  0
 16  5  1  0
  2 16  1  6
 17  3  1  0
 18 17  1  0
 18  6  1  0
 19 18  1  0
 20 19  1  0
 20  5  1  0
 20  4  1  0
 21 19  1  0
 22  5  1  0
 23  6  1  0
 24  7  1  0
 24 23  1  6
 25  8  1  0
 25  7  1  0
 26  8  1  0
 26 24  1  0
 27 11  1  0
 27  9  1  0
 28 10  1  0
 29 28  1  0
 29  9  1  0
 30  7  1  0
M  END
