
     RDKit          3D

 27 30  0  0  0  0  0  0  0  0999 V2000
   -1.9600   -1.2060    3.8870 N   0  0  0  0  0  0  0  0  0  0  0  0
   -0.2760    0.1860    3.4850 C   0  0  0  0  0  0  0  0  0  0  0  0
   -1.5820    0.0450    3.8190 C   0  0  1  0  0  0  0  0  0  0  0  0
    0.2030   -1.0830    3.2800 C   0  0  0  0  0  0  0  0  0  0  0  0
   -0.8530   -1.9250    3.5260 N   0  0  0  0  0  0  0  0  0  0  0  0
   -2.2320    1.2830    3.7490 C   0  0  1  0  0  0  0  0  0  0  0  0
   -3.8420    1.2450    4.5640 N   0  0  0  0  0  0  0  0  0  0  0  0
    1.4560   -1.5940    2.8960 N   0  0  0  0  0  0  0  0  0  0  0  0
   -0.8770   -3.3720    3.4120 C   0  0  0  0  0  0  0  0  0  0  0  0
   -4.7650    2.0500    4.7780 C   0  0  0  0  0  0  0  0  0  0  0  0
   -2.2010    2.7910    4.1670 C   0  0  0  0  0  0  0  0  0  0  0  0
   -4.4570    3.1030    5.0300 C   0  0  0  0  0  0  0  0  0  0  0  0
   -3.1830    3.4020    5.0020 C   0  0  0  0  0  0  0  0  0  0  0  0
    3.7910   -1.4640    2.3040 C   0  0  0  0  0  0  0  0  0  0  0  0
    4.0830   -2.8000    2.0200 C   0  0  0  0  0  0  0  0  0  0  0  0
    5.4600   -2.8130    1.7120 C   0  0  0  0  0  0  0  0  0  0  0  0
    5.8810   -1.5770    1.8300 N   0  0  0  0  0  0  0  0  0  0  0  0
    4.8970   -0.7120    2.1900 N   0  0  0  0  0  0  0  0  0  0  0  0
    7.2220   -1.1120    1.6100 C   0  0  0  0  0  0  0  0  0  0  0  0
    3.2380   -4.0060    2.0060 C   0  0  1  0  0  0  0  0  0  0  0  0
    2.5470   -0.8350    2.6700 C   0  0  0  0  0  0  0  0  0  0  0  0
    2.5310    0.4140    2.7670 O   0  0  0  0  0  0  0  0  0  0  0  0
    3.3040   -4.8930    0.9170 C   0  0  0  0  0  0  0  0  0  0  0  0
    2.5040   -6.0200    0.9150 C   0  0  0  0  0  0  0  0  0  0  0  0
    1.7200   -6.3320    1.9840 N   0  0  0  0  0  0  0  0  0  0  0  0
    1.6750   -5.5210    3.0540 C   0  0  0  0  0  0  0  0  0  0  0  0
    2.4580   -4.3430    3.0730 C   0  0  0  0  0  0  0  0  0  0  0  0
  3  2  1  6
  3  1  1  0
  4  2  1  0
  5  4  1  0
  5  1  1  0
  6  3  1  0
  7  6  1  0
  8  4  1  0
  9  5  1  0
 10  7  1  0
  6 11  1  1
 12 10  1  0
 13 12  1  0
 13 11  1  0
 15 14  1  0
 16 15  1  0
 17 16  1  0
 18 14  1  0
 18 17  1  0
 19 17  1  0
 20 15  1  1
 21 14  1  0
 21  8  1  0
 22 21  1  0
 23 20  1  0
 24 23  1  0
 25 24  1  0
 26 25  1  0
 27 26  1  0
 27 20  1  0
M  END
