
     RDKit          3D

 34 38  0  0  0  0  0  0  0  0999 V2000
   -3.9630   -4.6210    4.9760 C   0  0  0  0  0  0  0  0  0  0  0  0
   -2.3780   -2.1920    3.5830 C   0  0  2  0  0  0  0  0  0  0  0  0
   -1.2990   -2.5150    5.7510 C   0  0  0  0  0  0  0  0  0  0  0  0
   -2.3590   -2.8140    4.8200 C   0  0  2  0  0  0  0  0  0  0  0  0
   -5.4360   -6.6520    5.0280 N   0  0  0  0  0  0  0  0  0  0  0  0
   -4.1000   -8.2740    5.6560 C   0  0  0  0  0  0  0  0  0  0  0  0
   -1.2090   -7.9010    3.6340 C   0  0  0  0  0  0  0  0  0  0  0  0
    1.0620   -9.0210    5.0720 C   0  0  0  0  0  0  0  0  0  0  0  0
   -3.3830   -7.0970    5.5830 C   0  0  0  0  0  0  0  0  0  0  0  0
   -4.2390   -6.0590    5.2130 C   0  0  1  0  0  0  0  0  0  0  0  0
   -0.6170   -1.2210    5.4920 C   0  0  0  0  0  0  0  0  0  0  0  0
   -0.8510   -0.4990    4.3600 N   0  0  0  0  0  0  0  0  0  0  0  0
    0.2750   -0.6450    6.2210 N   0  0  0  0  0  0  0  0  0  0  0  0
   -1.9600   -7.1310    5.9160 C   0  0  1  0  0  0  0  0  0  0  0  0
    0.6200    0.5280    5.5980 C   0  0  0  0  0  0  0  0  0  0  0  0
   -5.3440   -7.9700    5.3320 N   0  0  0  0  0  0  0  0  0  0  0  0
   -1.7690   -0.8520    3.4090 C   0  0  0  0  0  0  0  0  0  0  0  0
   -0.0730    0.6070    4.4250 C   0  0  0  0  0  0  0  0  0  0  0  0
   -2.7180   -4.2130    4.9500 N   0  0  0  0  0  0  0  0  0  0  0  0
   -0.9720   -7.5790    5.0620 N   0  0  0  0  0  0  0  0  0  0  0  0
   -3.3270   -2.4940    2.5960 C   0  0  0  0  0  0  0  0  0  0  0  0
   -4.1810   -2.6920    1.8330 N   0  0  0  0  0  0  0  0  0  0  0  0
   -4.8530   -3.8630    4.7730 O   0  0  0  0  0  0  0  0  0  0  0  0
   -1.6080   -6.5760    6.9070 O   0  0  0  0  0  0  0  0  0  0  0  0
    1.5600    1.4800    6.1010 C   0  0  0  0  0  0  0  0  0  0  0  0
    0.8890   -9.2370    3.6480 O   0  0  0  0  0  0  0  0  0  0  0  0
   -6.6660   -6.0840    4.6720 C   0  0  0  0  0  0  0  0  0  0  0  0
    0.4410   -7.6990    5.4850 C   0  0  0  0  0  0  0  0  0  0  0  0
   -0.5230   -9.2320    3.2970 C   0  0  0  0  0  0  0  0  0  0  0  0
    2.2850    1.2580    7.2640 C   0  0  0  0  0  0  0  0  0  0  0  0
    1.7290    2.6850    5.4240 C   0  0  0  0  0  0  0  0  0  0  0  0
    3.2120    2.2170    7.7310 C   0  0  0  0  0  0  0  0  0  0  0  0
    2.6330    3.6300    5.8970 C   0  0  0  0  0  0  0  0  0  0  0  0
    3.3910    3.4210    7.0570 C   0  0  0  0  0  0  0  0  0  0  0  0
  4  2  1  0
  4  3  1  0
  9  6  1  0
 10  5  1  0
 10  9  1  0
 10  1  1  6
 11  3  1  0
 12 11  1  0
 13 11  1  0
 14  9  1  0
 15 13  1  0
 16  5  1  0
 16  6  1  0
 17 12  1  0
 17  2  1  0
 18 12  1  0
 18 15  1  0
  4 19  1  6
 19  1  1  0
 20  7  1  0
 20 14  1  0
  2 21  1  1
 22 21  1  0
 23  1  1  0
 14 24  1  6
 25 15  1  0
 26  8  1  0
 27  5  1  0
 28 20  1  0
 28  8  1  0
 29 26  1  0
 29  7  1  0
 30 25  1  0
 31 25  1  0
 32 30  1  0
 33 31  1  0
 34 33  1  0
 34 32  1  0
M  END
